16
	Energy:      -5.3890369
C         -4.82771        1.78638       -0.01211
H         -3.84734        2.26793       -0.01599
H         -5.60609        2.54082       -0.14274
H         -4.97722        1.27189        0.93956
H         -4.88240        1.06432       -0.82962
C         -0.29742        3.41581        0.01060
C          0.68248        4.56740       -0.00265
H          0.19236        2.49873        0.35145
H         -0.69778        3.24015       -0.99231
H         -1.13378        3.63011        0.68262
H          1.51855        4.35315       -0.67512
H          1.08354        4.74257        1.00012
H          0.19299        5.48475       -0.34302
C         -5.22580        5.64602        0.03575
O         -6.42272        5.65381        0.02386
O         -4.02886        5.63522        0.04748
