10
	Energy:      -0.4897655
C         -4.88022        1.81335       -0.01189
H         -3.92414        2.34127       -0.01700
H         -5.69334        2.53095       -0.13775
H         -5.00160        1.28921        0.93851
H         -4.90263        1.09205       -0.83161
N         -1.61531        0.22487       -0.03902
N         -0.92753       -0.64765        0.00491
C         -5.25112        5.65035        0.03526
O         -6.44800        5.64715        0.02292
O         -4.05416        5.65070        0.04747
